*INCLUDE, INPUT=/home/stephen/Projects/Masters/Calculix_PipeMesher/Tests/Mesh.inp

*BOUNDARY
Inlet,1,1
1,2,2
11,2,2
6,3,3
16,3,3

*PHYSICAL CONSTANTS, ABSOLUTE ZERO=0, STEFAN BOLTZMANN=5.669E-8

*MATERIAL,NAME=Steel
*ELASTIC
2.1e5,0.285,273
2.1e5,0.285,673
2.1e5,0.285,973
*PLASTIC
800.,0.,273.
900.,0.05,273.
1000.,0.15,273.
700.,0.,973.
750.,0.04,973.
800.,0.13,973
*CREEP
1.e-10,3.,0.
*DENSITY
7850e-12

**THERMAL PROPERTIES
*CONDUCTIVITY
44.8
*SPECIFIC HEAT
480e6
*EXPANSION
25e-6

*SOLID SECTION,MATERIAL=Steel,ELSET=Eall

*INITIAL CONDITIONS,TYPE=TEMPERATURE
Nall,273.
*AMPLITUDE,NAME=A1
0.,.34,600.,1.
**TIME POINTS,NAME=T1
**60,120,180,240,300,360,420,480,540
*STEP
*HEAT TRANSFER
60,600
*BOUNDARY,AMPLITUDE=A1
Inside,11,11,813
*NODE PRINT, NSET = Nall
NT
*END STEP
*STEP
*STATIC,  TOTAL TIME AT START=0
1,1
*EL PRINT,ELSET=Eall
S,PE
*END STEP
*STEP,INC=1000,NLGEOM
*VISCO, TOTAL TIME AT START=0
60,600
*CHANGE MATERIAL,NAME=Steel
*CHANGE PLASTIC
0.,0.
0.,100.
*DLOAD
InsideF1,P1,17.05
*NODE PRINT, NSET = Nall
NT,U
*EL PRINT, ELSET = Eall
S,E,CEEQ
*NODE FILE
NT,U
*EL FILE
S,E,CEEQ
*END STEP
