*INCLUDE, INPUT=Mesh.inp

*PHYSICAL CONSTANTS, ABSOLUTE ZERO=0, STEFAN BOLTZMANN=5.669E-8

*MATERIAL,NAME=Steel
*ELASTIC
2.1e5,0.285
*DENSITY
7850e-12

**THERMAL PROPERTIES
*CONDUCTIVITY
44.8
*SPECIFIC HEAT
480e6
*EXPANSION
25e-6

*SOLID SECTION,MATERIAL=Steel,ELSET=Eall

*INITIAL CONDITIONS,TYPE=TEMPERATURE
Nall,293.15
*AMPLITUDE,NAME=A1
0.,.7,600.,1.
**MPC
**PLANE,Outlet

*STEP
*HEAT TRANSFER
60,600

*BOUNDARY,AMPLITUDE=A1
Inside,11,11,813

*END STEP
*STEP, NLGEOM
*STATIC, TIME RESET
60,600

*BOUNDARY
Inlet,1,1
1,2,2
11,2,2
6,3,3
16,3,3

**DLOAD
**InsideF1,P1,17.05

*NODE FILE
NT,U
*EL FILE
S,E
*NODE PRINT, NSET = Nall
NT,U
*EL PRINT, ELSET = Eall
S,E
*END STEP