*INCLUDE, INPUT=/home/spookfish/Projects/Masters/Calculix_PipeMesher/Tests/Mesh.inp

*BOUNDARY
Inlet,1,1
1,2,2
11,2,2
6,3,3
16,3,3

**MPC
**PLANE,Outlet

*PHYSICAL CONSTANTS, ABSOLUTE ZERO=0, STEFAN BOLTZMANN=5.669E-8

*MATERIAL,NAME=Steel
*ELASTIC
2.1e5,0.285,273
2.0e5,0.285,673
1.9e5,0.285,973
*PLASTIC
0.,0.
0.,10.
*CREEP
1.e-10,5.,273.
2.e-10,5.,673.
3.e-10,5.,973.
*DENSITY
7850e-12

**THERMAL PROPERTIES
*CONDUCTIVITY
44.8
*SPECIFIC HEAT
480e6
*EXPANSION
25e-6

*SOLID SECTION,MATERIAL=Steel,ELSET=Eall

*INITIAL CONDITIONS,TYPE=TEMPERATURE
Nall,293.15
*AMPLITUDE,NAME=A1
0.,.3,600.,1.

*STEP,NLGEOM
*UNCOUPLED TEMPERATURE-DISPLACEMENT
60,600

*BOUNDARY,AMPLITUDE=A1
Inside,11,11,813

*DLOAD
InsideF1,P1,17.05

*NODE FILE
NT,U
*EL FILE
S,E,CEEQ
*NODE PRINT, NSET = Nall
NT,U
*EL PRINT, ELSET = Eall
S,E,CEEQ
*END STEP
