*INCLUDE, INPUT=/home/spookfish/Projects/Masters/Calculix_PipeMesher/Tests/Mesh.inp

*BOUNDARY
Inlet,1,1
1,2,2
11,2,2
6,3,3
16,3,3

**MPC
**PLANE,Outlet

*PHYSICAL CONSTANTS, ABSOLUTE ZERO=0, STEFAN BOLTZMANN=5.669E-8

*MATERIAL,NAME=Steel
*ELASTIC
2.18e5,0.284,293
2.13e5,0.287,373
2.06e5,0.291,473
1.98e5,0.296,573
1.89e5,0.3,673
1.79e5,0.305,773
1.66e5,0.307,873
*PLASTIC
690.,0.
*CREEP
1.2e-26,7.22342,0.,773
5.00624e-25,7.22342,0.,823
2.71880e-20,5.90079,0.,873
*DENSITY
7700e-12

**THERMAL PROPERTIES
*CONDUCTIVITY
24.0, 293.
25.1, 573.
25.6, 693.
26.1, 793.
26.4, 893.
*SPECIFIC HEAT
439e6, 293.
517e6, 573.
538e6, 673.
564e6, 773.
598e6, 873.
*EXPANSION, ZERO = 293.
10.8e-6, 473.
11.5e-6, 573.
12.1e-6, 673.
12.3e-6, 773.
12.5e-6, 873.

*SOLID SECTION,MATERIAL=Steel,ELSET=Eall

*INITIAL CONDITIONS,TYPE=TEMPERATURE
Nall,273.
*AMPLITUDE,NAME=A1
0.,.34,7800.,1.
**TIME POINTS,NAME=T1
**60,120,180,240,300,360,420,480,540
*STEP
*HEAT TRANSFER
60,7800
*BOUNDARY,AMPLITUDE=A1
Inside,11,11,813
*NODE PRINT, NSET = Nall
NT
*END STEP
*STEP
*STATIC,  TOTAL TIME AT START=0
60,60
*EL PRINT, ELSET = Eall
S,E,CEEQ
*END STEP
*STEP,INC=1000,NLGEOM
*VISCO
60,7740
*CHANGE MATERIAL,NAME=Steel
*CHANGE PLASTIC
0.,0.
0.,100.
*DLOAD
InsideF1,P1,17.05
*NODE PRINT, NSET = Nall
NT,U
*EL PRINT, ELSET = Eall
S,E,CEEQ
*NODE FILE
NT,U
*EL FILE
S,E,CEEQ
*END STEP
